THERMO ALL
300.   1000.   3500. 
AC3H4                   C   3H   4          G    300.00   3500.00 1800.00      1
 6.64430238e+00 1.14987825e-02-4.68099585e-06 9.62334222e-10-8.24360065e-14    2
 2.07131189e+04-1.35744541e+01 1.21562918e+00 2.35625008e-02-1.47340944e-05    3
 4.68570404e-09-5.99570704e-13 2.26674413e+04 1.58066578e+01                   4
ACETOL                  C   3H   6O   2     G    300.00   3500.00 1800.00      1
 9.43106557e+00 1.86879303e-02-7.29283976e-06 1.39932581e-09-1.08736168e-13    2
-4.87389994e+04-2.08360480e+01 1.41553145e+00 3.65002283e-02-2.21364215e-05    3
 6.89694866e-09-8.72294898e-13-4.58534071e+04 2.25456947e+01                   4
ALDEST                  C   6H  10O   3     G    300.00   3500.00 1800.00      1
 1.79608805e+01 3.27577303e-02-1.29904809e-05 2.50013680e-09-1.93431386e-13    2
-7.48983193e+04-5.99171462e+01 5.24137808e+00 6.10232913e-02-3.65451150e-05    3
 1.12240754e-08-1.40508952e-12-7.03192984e+04 8.92345431e+00                   4
ALDINS                  C  13H  20O   1     G    300.00   3500.00 1800.00      1
 8.44295858e+01 4.93170400e-02-2.86268350e-05 8.86979917e-09-1.00373619e-12    2
-8.94265291e+04-4.12065762e+02-1.18024916e+01 2.63166101e-01-2.06834386e-04    3
 7.48725957e-08-1.01707913e-11-5.47829813e+04 1.08762316e+02                   4
AR                      AR  1               G    300.00   3500.00 1490.00      1
 2.50000000e+00 7.40336223e-15-5.56967416e-18 1.73924876e-21-1.92673709e-25    2
-7.45375000e+02 4.36600000e+00 2.50000000e+00-4.07455160e-15 5.98527266e-18    3
-3.43074982e-21 6.74775716e-25-7.45375000e+02 4.36600000e+00                   4
BENZYNE                 C   6H   4          G    300.00   3500.00 1400.00      1
 1.09465819e+01 1.50373246e-02-5.27844959e-06 8.14607581e-10-4.49073366e-14    2
 5.03301418e+04-3.53782934e+01-3.73796173e+00 5.69931634e-02-5.02311341e-05    3
 2.22206478e-08-3.86741452e-12 5.44418140e+04 4.04070822e+01                   4
BIN1A                   C  20H  16          G    300.00   3500.00 1800.00      1
-3.24173600e+00 1.58222900e-01-9.46183500e-05 2.81843100e-08-3.56131000e-12    2
 2.17869900e+04 3.00825300e+01-3.24173600e+00 1.58222900e-01-9.46183500e-05    3
 2.81843100e-08-3.56131000e-12 2.17869900e+04 3.00825300e+01                   4
BIN1B                   C  20H  10          G    300.00   3500.00 1800.00      1
-5.70256700e+00 1.43432300e-01-8.80724700e-05 2.76799200e-08-3.52289900e-12    2
 2.77808900e+04 4.34481200e+01-5.70256700e+00 1.43432300e-01-8.80724700e-05    3
 2.76799200e-08-3.52289900e-12 2.77808900e+04 4.34481200e+01                   4
BIPHENYL                C  12H  10          G    300.00   3500.00 1450.00      1
 2.67692078e+01 2.81611415e-02-6.05667723e-06-3.69378426e-10 1.67249382e-13    2
 9.26692468e+03-1.21306413e+02-1.05625108e+01 1.31145193e-01-1.12591903e-04    3
 4.86123345e-08-8.27787353e-12 2.00931231e+04 7.26686556e+01                   4
BZFUR                   C   8H   6O   1     G    300.00   3500.00 1380.00      1
 1.64578334e+01 2.37623567e-02-8.52218599e-06 1.36123710e-09-7.97159891e-14    2
-5.90596972e+03-6.59480381e+01-8.70136947e+00 9.66875823e-02-8.77887356e-05    3
 3.96542562e-08-7.01685714e-12 1.03797027e+03 6.35339364e+01                   4
C                       C   1               G    300.00   3500.00  700.00      1
 2.48989675e+00 5.14965671e-05-7.37912415e-08 3.75721674e-11-4.86583734e-15    2
 8.54527782e+04 4.81783270e+00 2.55088394e+00-2.97001640e-04 6.72990632e-07    3
-6.73648664e-10 2.49141603e-13 8.54442400e+04 4.54535738e+00                   4
C10H10                  C  10H  10          G    300.00   3500.00 1800.00      1
 1.82592698e+01 4.15934216e-02-1.83631832e-05 3.88491136e-09-3.27420808e-13    2
 4.39687821e+03-8.23923218e+01-1.14588964e+01 1.07633791e-01-7.33968243e-05    3
 2.42677414e-08-3.15836942e-12 1.50954180e+04 7.84485932e+01                   4
C10H6CH3                C  11H   9          G    300.00   3500.00 1800.00      1
 2.12659882e+01 3.44429430e-02-1.39605695e-05 2.72496148e-09-2.12674976e-13    2
 3.28507521e+04-9.11529083e+01-1.92673037e+00 8.59823175e-02-5.69100482e-05    3
 1.86321758e-08-2.42201030e-12 4.12001308e+04 3.43709226e+01                   4
C10H7                   C  10H   7          G    300.00   3500.00 1440.00      1
 1.86034915e+01 2.84557463e-02-7.51492092e-06 8.59843958e-11 1.31843536e-13    2
 3.89175328e+04-7.96671600e+01-8.11601745e+00 1.02676605e-01-8.48283149e-05    3
 3.58792224e-08-6.08226028e-12 4.66127513e+04 5.89821104e+01                   4
C10H7CH2                C  11H   9          G    300.00   3500.00 1460.00      1
 1.62958766e+01 4.54296741e-02-2.13529357e-05 4.77934912e-09-4.18010504e-13    2
 2.55100815e+04-6.47739136e+01-5.20583638e+00 1.04338477e-01-8.18756782e-05    3
 3.24153046e-08-5.15019466e-12 3.17885817e+04 4.70964540e+01                   4
C10H7CH3                C  11H  10          G    300.00   3500.00 1400.00      1
 1.59718633e+01 4.84656090e-02-2.27123224e-05 5.09437338e-09-4.47432797e-13    2
 5.32412011e+03-6.35417268e+01-7.85505905e+00 1.16542530e-01-9.56518805e-05    3
 3.98274963e-08-6.64977617e-12 1.19956584e+04 5.94264980e+01                   4
C10H7CHO                C  11H   8O   1     G    300.00   3500.00 1800.00      1
 2.76873866e+01 2.65153545e-02-9.85230690e-06 1.73492056e-09-1.21699947e-13    2
-1.08926269e+04-1.25645702e+02-1.80645208e+00 9.20572182e-02-6.44705267e-05    3
 2.19638908e-08-2.93127915e-12-2.74844971e+02 3.39811053e+01                   4
C10H7O                  C  10H   7O   1     G    300.00   3500.00 1800.00      1
 2.60845785e+01 2.24488808e-02-7.86244785e-06 1.25147148e-09-7.55452008e-14    2
 1.36168392e+03-1.17834769e+02-2.53985295e+00 8.60587284e-02-6.08706542e-05    3
 2.08841405e-08-2.80230479e-12 1.16664792e+04 3.70866255e+01                   4
C10H7OH                 C  10H   8O   1     G    300.00   3500.00 1730.00      1
 2.61818224e+01 2.47079229e-02-8.75472975e-06 1.41213209e-09-8.61580367e-14    2
-1.58338687e+04-1.19314317e+02-3.09194614e+00 9.23929369e-02-6.74411581e-05    3
 2.40273261e-08-3.35424965e-12-5.70514482e+03 3.79602738e+01                   4
C10H8                   C  10H   8          G    300.00   3500.00 1370.00      1
 1.51184828e+01 3.89675576e-02-1.78248659e-05 3.92092279e-09-3.39215689e-13    2
 1.01121562e+04-6.09041102e+01-8.71832426e+00 1.08564074e-01-9.40254318e-05    3
 4.10014902e-08-7.10574258e-12 1.66434413e+04 6.15987876e+01                   4
C11H12O4                C  11H  12O   4     G    300.00   3500.00 1280.00      1
 2.98957517e+01 4.73870505e-02-2.11603212e-05 4.60350399e-09-3.96349099e-13    2
-7.02119467e+04-1.21160681e+02-3.09348688e+00 1.50478421e-01-1.41970521e-04    3
 6.75254832e-08-1.26857982e-11-6.17667016e+04 4.61370519e+01                   4
C12H18                  C  12H  18          G    300.00   3500.00 1800.00      1
 8.44295858e+01 4.93170400e-02-2.86268350e-05 8.86979917e-09-1.00373619e-12    2
-8.94265291e+04-4.12065762e+02-1.18024916e+01 2.63166101e-01-2.06834386e-04    3
 7.48725957e-08-1.01707913e-11-5.47829813e+04 1.08762316e+02                   4
C12H22                  C  12H  22          G    300.00   3500.00 1760.00      1
 3.60687856e+01 4.93531801e-02-1.68932777e-05 2.64866878e-09-1.56934744e-13    2
-2.29291143e+04-1.58689972e+02-2.71855262e+00 1.37506222e-01-9.20237107e-05    3
 3.11071661e-08-4.19933494e-12-9.27597128e+03 5.03635315e+01                   4
C12H7                   C  12H   7          G    300.00   3500.00 1250.00      1
 1.23349807e+01 5.16907682e-02-2.72404819e-05 6.85858162e-09-6.72018930e-13    2
 5.30394981e+04-4.25244963e+01-8.02968441e+00 1.16857696e-01-1.05440796e-04    3
 4.85654157e-08-9.01338574e-12 5.81306643e+04 6.02674845e+01                   4
C12H8                   C  12H   8          G    300.00   3500.00 1430.00      1
 2.59652189e+01 2.42501190e-02-4.81412894e-06-4.21078741e-10 1.47447105e-13    2
 1.90778575e+04-1.18254954e+02-9.28199067e+00 1.22843712e-01-1.08233982e-04    3
 4.77933050e-08-8.28164096e-12 2.91585594e+04 6.43994840e+01                   4
C14H10                  C  14H  10          G    300.00   3500.00 1430.00      1
 3.13141255e+01 2.89528714e-02-5.57670990e-06-5.89662906e-10 1.88202945e-13    2
 1.06460191e+04-1.48101025e+02-1.21905872e+01 1.50644375e-01-1.33225141e-04    3
 5.89200950e-08-1.02156009e-11 2.30883669e+04 7.73445897e+01                   4
C14H9                   C  14H   9          G    300.00   3500.00 1430.00      1
 3.13141255e+01 2.89528714e-02-5.57670990e-06-5.89662906e-10 1.88202945e-13    2
 4.06560892e+04-1.48101025e+02-1.21905872e+01 1.50644375e-01-1.33225141e-04    3
 5.89200950e-08-1.02156009e-11 5.30984370e+04 7.73445897e+01                   4
C16H10                  C  16H  10          G    300.00   3500.00 1430.00      1
 3.55205969e+01 2.97059226e-02-5.18577408e-06-7.74976601e-10 2.05764301e-13    2
 1.13998034e+04-1.72584653e+02-1.43149515e+01 1.69106058e-01-1.51409692e-04    3
 6.73946823e-08-1.17120082e-11 2.56527702e+04 8.56679628e+01                   4
C16H9                   C  16H   9          G    300.00   3500.00 1240.00      1
 1.61933977e+01 6.96117135e-02-3.71054121e-05 9.43826014e-09-9.32515880e-13    2
 4.61008358e+04-6.54256237e+01-1.33382684e+01 1.64875153e-01-1.52343443e-04    3
 7.13941909e-08-1.34236310e-11 5.34246890e+04 8.34001920e+01                   4
C2-OOQOOH               C   2H   5O   4     G    300.00   3500.00 1800.00      1
 1.24323243e+01 1.62358927e-02-6.84260319e-06 1.39267431e-09-1.12911127e-13    2
-1.87641105e+04-2.90906767e+01 5.81911522e+00 3.09319129e-02-1.90892866e-05    3
 5.92848300e-09-7.42884555e-13-1.63833552e+04 6.70139036e+00                   4
C2-OQOOH                C   2H   4O   3     G    300.00   3500.00 1800.00      1
 1.06961666e+01 1.25934013e-02-5.32391821e-06 1.08565058e-09-8.80671200e-14    2
-3.42000230e+04-2.43964294e+01 5.53941294e+00 2.40528540e-02-1.48734621e-05    3
 4.62251869e-09-5.79298801e-13-3.23435917e+04 3.51299738e+00                   4
C2-QOOH                 C   2H   5O   2     G    300.00   3500.00 1270.00      1
 7.85685775e+00 1.67911217e-02-7.79621720e-06 1.73782470e-09-1.51982948e-13    2
 7.20248835e+02-1.06887184e+01 8.24295798e-01 3.89409231e-02-3.39574000e-05    3
 1.54707291e-08-2.85531058e-12 2.50651957e+03 2.49202290e+01                   4
C2H                     C   2H   1          G    300.00   3500.00 1770.00      1
 2.62706056e+00 5.61439161e-03-2.33738366e-06 4.29433761e-10-2.92352464e-14    2
 6.73836200e+04 9.73315238e+00 4.71151838e+00 9.03752455e-04 1.65468342e-06    3
-1.07416966e-09 1.83138118e-13 6.66457220e+04-1.51333448e+00                   4
C2H2                    C   2H   2          G    300.00   3500.00  970.00      1
 4.61193612e+00 5.01498204e-03-1.65253694e-06 2.49922532e-10-1.30568636e-14    2
 2.56043843e+04-3.75517096e+00 1.83812159e+00 1.64533925e-02-1.93408005e-05    3
 1.24068047e-08-3.14627391e-12 2.61425043e+04 9.54239252e+00                   4
C2H2O2                  C   2H   2O   2     G    300.00   3500.00 1700.00      1
 9.83116579e+00 4.87360532e-03-1.69443300e-06 2.65361078e-10-1.54439841e-14    2
-2.96273239e+04-2.66407027e+01 1.89947966e+00 2.35363962e-02-1.81616014e-05    3
 6.72307419e-09-9.65107677e-13-2.69305506e+04 1.58338747e+01                   4
C2H3                    C   2H   3          G    300.00   3500.00  700.00      1
 7.05094230e-01 1.53761148e-02-8.91788178e-06 2.51340905e-09-2.70561650e-13    2
 3.36189510e+04 1.96531878e+01 2.74606708e+00 3.71341276e-03 1.60736225e-05    3
-2.12880236e-08 8.22995002e-12 3.33332148e+04 1.05346375e+01                   4
C2H3CHO                 C   3H   4O   1     G    300.00   3500.00 1340.00      1
 6.70517760e+00 1.61222451e-02-7.57298869e-06 1.70307233e-09-1.49924851e-13    2
-1.33618589e+04-9.88613663e+00 3.40917666e-01 3.51200360e-02-2.88391725e-05    3
 1.22832633e-08-2.12384107e-12-1.16562372e+04 2.26803642e+01                   4
C2H4                    C   2H   4          G    300.00   3500.00 1800.00      1
 4.49333672e+00 1.00335105e-02-3.62601388e-06 5.97613541e-10-3.65481279e-14    2
 3.93220822e+03-3.35192020e+00 2.66161697e-01 1.94272328e-02-1.14541158e-05    3
 3.49691054e-09-4.39228267e-13 5.45399123e+03 1.95264329e+01                   4
C2H4CHO                 C   3H   5O   1     G    300.00   3500.00  760.00      1
 2.15579434e+00 2.57531407e-02-1.33069384e-05 3.28122872e-09-3.12828174e-13    2
-7.31459492e+02 1.94816815e+01 3.58641615e+00 1.82235522e-02 1.55409151e-06    3
-9.75476244e-09 3.97532681e-12-9.48914007e+02 1.29723736e+01                   4
C2H4O                   C   2H   4O   1     G    300.00   3500.00 1440.00      1
 4.77217531e+00 1.29608883e-02-4.19608017e-06 3.32859470e-10 2.97428516e-14    2
-8.91054882e+03-2.99568268e+00-1.76683146e+00 3.11247960e-02-2.31168173e-05    3
 9.09246001e-09-1.49102113e-12-7.02731487e+03 3.09356489e+01                   4
C2H4O2                  C   2H   4O   2     G    300.00   3500.00  770.00      1
 3.40614010e+00 2.02613044e-02-1.03463461e-05 2.53497107e-09-2.40436915e-13    2
-3.88060356e+04 1.20569218e+01 4.64403525e+00 1.38306802e-02 2.18084389e-06    3
-8.31108086e-09 3.28100852e-12-3.89966715e+04 6.40833543e+00                   4
C2H4OH                  C   2H   5O   1     G    300.00   3500.00 1800.00      1
 6.43071837e+00 1.30529032e-02-5.04234033e-06 9.42421880e-10-7.06192378e-14    2
-6.84254175e+03-6.40643970e+00 1.19058412e+00 2.46976460e-02-1.47462926e-05    3
 4.53647829e-09-5.69793739e-13-4.95609342e+03 2.19542600e+01                   4
C2H5                    C   2H   5          G    300.00   3500.00  700.00      1
-1.10489358e+00 2.43511913e-02-1.39613152e-05 3.89870297e-09-4.17285120e-13    2
 1.35030749e+04 3.00146907e+01 4.99501831e+00-1.05054480e-02 6.07314834e-05    3
-6.72372957e-08 2.49884287e-11 1.26490872e+04 2.76182763e+00                   4
C2H5CHO                 C   3H   6O   1     G    300.00   3500.00 1140.00      1
-3.19796156e+00 4.17401347e-02-2.22156952e-05 5.37596466e-09-4.95601240e-13    2
-2.31457657e+04 4.43385409e+01 4.65967589e+00 1.41694770e-02 1.40614860e-05    3
-1.58387612e-08 4.15675092e-12-2.49373071e+04 5.40040975e+00                   4
C2H5OH                  C   2H   6O   1     G    300.00   3500.00 1380.00      1
 4.82959470e+00 1.77552121e-02-6.21112100e-06 6.58265206e-10 1.60136692e-14    2
-3.08658494e+04 5.43180378e-01 2.48921589e-01 3.10325255e-02-2.06429833e-05    3
 7.63017938e-09-1.24701426e-12-2.96015836e+04 2.41176395e+01                   4
C2H5OO                  C   2H   5O   2     G    300.00   3500.00 1260.00      1
 4.82335647e+00 2.06819188e-02-9.67611879e-06 2.17589519e-09-1.91914821e-13    2
-4.75156327e+03 3.93765088e+00 1.82119985e+00 3.02125747e-02-2.10221378e-05    3
 8.17907984e-09-1.38302289e-12-3.99501980e+03 1.91151548e+01                   4
C2H5OOH                 C   2H   6O   2     G    300.00   3500.00 1590.00      1
 1.15652199e+01 1.02216474e-02-1.86630047e-06-2.55692055e-10 7.26211298e-14    2
-2.47328137e+04-3.42112965e+01 1.46294225e+00 3.56361824e-02-2.58422768e-05    3
 9.79712822e-09-1.50801099e-12-2.15202894e+04 1.92111233e+01                   4
C2H6                    C   2H   6          G    300.00   3500.00 1800.00      1
 4.39373503e+00 1.52684734e-02-5.82725051e-06 1.10377088e-09-8.60486537e-14    2
-1.27269866e+04-3.21997495e+00-2.74461309e-01 2.56422430e-02-1.44720586e-05    3
 4.30555164e-09-5.30740425e-13-1.10464360e+04 2.20452775e+01                   4
C3-OQOOH                C   3H   6O   3     G    300.00   3500.00 1350.00      1
 1.12132537e+01 2.34709018e-02-1.13098317e-05 2.59008079e-09-2.30885268e-13    2
-3.91289882e+04-2.66260028e+01 8.46220448e-01 5.41880374e-02-4.54399824e-05    3
 1.94444762e-08-3.35206960e-12-3.63298893e+04 2.65001343e+01                   4
C3H2                    C   3H   2          G    300.00   3500.00  700.00      1
 6.27665898e+00 5.58433105e-03-2.45857473e-06 5.41223006e-10-4.83608105e-14    2
 6.31055207e+04-4.75111128e+00 4.26055345e+00 1.71049341e-02-2.71455812e-05    3
 2.40526578e-08-8.44530180e-12 6.33877755e+04 4.25633816e+00                   4
C3H3                    C   3H   3          G    300.00   3500.00 1720.00      1
 1.09930471e+01 7.79714852e-04 1.73957383e-06-7.95864951e-10 9.69732207e-14    2
 3.74627231e+04-3.40822737e+01 3.56039712e+00 1.80649474e-02-1.33347569e-05    3
 5.04689889e-09-7.52265710e-13 4.00195547e+04 5.80687271e+00                   4
C3H4O2                  C   3H   4O   2     G    300.00   3500.00 1240.00      1
 1.02920429e+01 1.38871300e-02-6.12561993e-06 1.30548845e-09-1.09965765e-13    2
-3.57026988e+04-2.69350036e+01 1.17378045e-01 4.67086294e-02-4.58290467e-05    3
 2.26514168e-08-4.41358036e-12-3.31793820e+04 2.43405589e+01                   4
C3H4O3                  C   3H   4O   3     G    300.00   3500.00 1710.00      1
 1.37242810e+01 1.08811110e-02-3.70124855e-06 5.78901440e-10-3.43205818e-14    2
-5.77802807e+04-3.99570073e+01 2.17563103e+00 3.78954970e-02-2.73980784e-05    3
 9.81743159e-09-1.38498288e-12-5.38306424e+04 2.19543274e+01                   4
C3H5CHO                 C   4H   6O   1     G    300.00   3500.00 1610.00      1
 9.36564259e+00 1.99394689e-02-8.24714277e-06 1.63840913e-09-1.29181894e-13    2
-1.44293663e+04-2.07054000e+01 2.40474771e-01 4.26106933e-02-2.93694015e-05    3
 1.03846860e-08-1.48729943e-12-1.14910622e+04 2.76639767e+01                   4
C3H5OH                  C   3H   6O   1     G    300.00   3500.00  820.00      1
 2.45863176e+00 2.66446458e-02-1.24879759e-05 2.92198798e-09-2.71872686e-13    2
-1.72239991e+04 1.83830345e+01 4.24999286e+00 1.79062989e-02 3.49680492e-06    3
-1.00737688e-08 3.69024828e-12-1.75177823e+04 1.00962500e+01                   4
C3H5OO                  C   3H   5O   2     G    300.00   3500.00 1800.00      1
 7.69230110e+00 2.05361077e-02-9.61589847e-06 2.15332094e-09-1.88909485e-13    2
 6.21484234e+03-1.04053755e+01 2.96424215e+00 3.10429054e-02-1.83715632e-05    3
 5.39615972e-09-6.39303761e-13 7.91694356e+03 1.51838658e+01                   4
C3H5OOH                 C   3H   6O   2     G    300.00   3500.00 1800.00      1
 1.21377197e+01 1.68585481e-02-6.94275126e-06 1.36958900e-09-1.07427460e-13    2
-1.25265904e+04-3.57194708e+01 2.24651097e+00 3.88390118e-02-2.52598044e-05    3
 8.15368275e-09-1.04966270e-12-8.96575529e+03 1.78138141e+01                   4
C3H6                    C   3H   6          G    300.00   3500.00 1800.00      1
 9.21549195e+00 1.10096151e-02-2.72165887e-06 1.69301120e-10 1.25058839e-14    2
-2.15028535e+03-2.75773224e+01-2.61886761e-01 3.20704567e-02-2.02723602e-05    3
 6.66956086e-09-8.90307969e-13 1.26157099e+03 2.37162283e+01                   4
C3H6O                   C   3H   6O   1     G    300.00   3500.00 1720.00      1
 6.42754902e+00 2.00818525e-02-6.55464685e-06 4.84306793e-10 5.68893699e-14    2
-1.48035725e+04-9.71995026e+00-9.99780843e-02 3.52621481e-02-1.97932767e-05    3
 5.61555868e-09-6.88932126e-13-1.25581031e+04 2.53116313e+01                   4
C3H6O2                  C   3H   6O   2     G    300.00   3500.00 1800.00      1
 1.08721654e+01 1.63593216e-02-6.08637842e-06 1.10130850e-09-8.02911326e-14    2
-4.55272952e+04-2.70748520e+01 2.66105929e+00 3.46062241e-02-2.12921305e-05    3
 6.73306853e-09-8.62480026e-13-4.25712970e+04 1.73653673e+01                   4
C3H7CHO                 C   4H   8O   1     G    300.00   3500.00  700.00      1
-9.77279434e-01 5.24983747e-02-3.09762338e-05 8.32680251e-09-8.38156520e-13    2
-2.70767712e+04 3.27194912e+01 3.71554492e+00 2.56822356e-02 2.64869216e-05    3
-4.64000121e-08 1.87071344e-11-2.77337666e+04 1.17531393e+01                   4
C3H7OOH                 C   3H   8O   2     G    300.00   3500.00 1670.00      1
 1.20273024e+01 2.23669330e-02-9.25510611e-06 1.83134653e-09-1.43510571e-13    2
-2.87878078e+04-3.43698022e+01 1.14029559e+00 4.84435961e-02-3.26772586e-05    3
 1.11815072e-08-1.54323522e-12-2.51515476e+04 2.37368269e+01                   4
C3H8                    C   3H   8          G    300.00   3500.00 1800.00      1
 1.08596364e+01 1.35766563e-02-3.19926248e-06 1.41615801e-10 2.35898562e-14    2
-1.80884704e+04-3.69486914e+01-1.25512725e+00 4.04983533e-02-2.56340099e-05    3
 8.45078153e-09-1.13046094e-12-1.37271555e+04 2.86189366e+01                   4
C4H2                    C   4H   2          G    300.00   3500.00 1050.00      1
 8.50275797e+00 6.97445022e-03-2.53297106e-06 4.33287765e-10-2.93611469e-14    2
 5.31727553e+04-2.08807943e+01 2.90907865e+00 2.82837048e-02-3.29747633e-05    3
 1.97614098e-08-4.63129497e-12 5.43474279e+04 6.37839155e+00                   4
C4H3                    C   4H   3          G    300.00   3500.00 1590.00      1
 1.30208969e+01 1.53590365e-03 1.80568199e-06-9.30237202e-10 1.18077197e-13    2
 6.01811751e+04-4.25791500e+01 2.34662667e+00 2.83894138e-02-2.35278181e-05    3
 9.69177542e-09-1.55205057e-12 6.35755930e+04 1.38680560e+01                   4
C4H3O                   C   4H   3O   1     G    300.00   3500.00 1240.00      1
 8.44125905e+00 1.62911136e-02-8.34126436e-06 2.01436766e-09-1.87394603e-13    2
 1.94535776e+04-2.27855078e+01-5.90872253e+00 6.25813767e-02-6.43375505e-05    3
 3.21198978e-08-6.25705794e-12 2.30123730e+04 4.95317026e+01                   4
C4H4                    C   4H   4          G    300.00   3500.00 1190.00      1
 6.36293592e+00 1.66610000e-02-7.54220850e-06 1.59521425e-09-1.28415834e-13    2
 3.13137240e+04-8.19255288e+00 4.03184847e-01 3.66937767e-02-3.27936077e-05    3
 1.57416564e-08-3.10035746e-12 3.27321448e+04 2.15965194e+01                   4
C4H4O                   C   4H   4O   1     G    300.00   3500.00 1250.00      1
 8.37486466e+00 1.95634451e-02-9.90167121e-06 2.37694382e-09-2.20517698e-13    2
-9.41817580e+03-2.52053384e+01-7.59507781e+00 7.06672610e-02-7.12262503e-05    3
 3.50833860e-08-6.76180613e-12-5.42569018e+03 5.54039922e+01                   4
C4H5                    C   4H   5          G    300.00   3500.00 1800.00      1
 1.90192654e+01-1.91794385e-03 4.88814513e-06-1.91833948e-09 2.24139237e-13    2
 3.48592740e+04-7.70423351e+01-2.01742307e-01 4.07954066e-02-3.07063136e-05    3
 1.12647934e-08-1.60685144e-12 4.17788367e+04 2.69857683e+01                   4
C4H6                    C   4H   6          G    300.00   3500.00 1550.00      1
 9.55395345e+00 1.51364811e-02-4.78509457e-06 6.14955374e-10-2.23809938e-14    2
 8.63284693e+03-2.77966685e+01-1.04533857e+00 4.24894928e-02-3.12557510e-05    3
 1.20001840e-08-1.85870818e-12 1.19186275e+04 2.79839806e+01                   4
C4H6O2                  C   4H   6O   2     G    300.00   3500.00 1800.00      1
 7.01919581e+00 2.89919962e-02-1.39811163e-05 3.22750474e-09-2.90888810e-13    2
-4.36055710e+04-7.47846940e+00 9.15158242e-01 4.25565241e-02-2.52848896e-05    3
 7.41408744e-09-8.72358628e-13-4.14081175e+04 2.55578553e+01                   4
C4H7OH                  C   4H   8O   1     G    300.00   3500.00 1460.00      1
 1.00981665e+01 2.15734935e-02-6.74008418e-06 9.16825971e-10-4.16200161e-14    2
-2.37290909e+04-2.45741592e+01-2.55531336e-01 4.99397889e-02-3.58835384e-05    3
 1.42243393e-08-2.32030381e-12-2.07058111e+04 2.92946643e+01                   4
C4H8O                   C   4H   8O   1     G    300.00   3500.00 1800.00      1
 1.12815996e+01 2.48463701e-02-1.13234700e-05 2.47069946e-09-2.12413507e-13    2
-2.03756688e+04-3.84267373e+01-2.94845122e+00 5.64687053e-02-3.76754160e-05    3
 1.22306795e-08-1.56796629e-12-1.52528505e+04 3.85892666e+01                   4
C4H9CHO                 C   5H  10O   1     G    300.00   3500.00  760.00      1
-1.78433179e+00 6.31204386e-02-3.60836198e-05 9.48321920e-09-9.39522544e-13    2
-2.97113508e+04 3.92478712e+01 5.53299014e+00 2.46082180e-02 3.99273421e-05    3
-5.71930632e-08 2.09934651e-11-3.08235837e+04 5.95416540e+00                   4
C4H9OOH                 C   4H  10O   2     G    300.00   3500.00 1780.00      1
 1.73966948e+01 2.30088698e-02-8.34646932e-06 1.39883190e-09-9.01677555e-14    2
-3.38614042e+04-6.23628946e+01 1.12895120e+00 5.95655969e-02-3.91527000e-05    3
 1.29367460e-08-1.71066131e-12-2.80700874e+04 2.54997628e+01                   4
C5EN-OO                 C   5H   9O   2     G    300.00   3500.00 1280.00      1
 1.00840321e+01 3.69913036e-02-1.74216180e-05 3.93130749e-09-3.47257402e-13    2
-8.98415155e+02-1.96513637e+01 4.09897281e-01 6.72229749e-02-5.28493577e-05    3
 2.23832553e-08-3.95115346e-12 1.57816336e+03 2.94089022e+01                   4
C5EN-OOQOOH-35          C   5H   9O   4     G    300.00   3500.00 1160.00      1
 1.36699765e+01 4.21231935e-02-2.15503712e-05 5.21806336e-09-4.87293014e-13    2
-1.42354804e+04-3.35883364e+01 5.24578583e-01 8.74521518e-02-8.01654035e-05    3
 3.89048635e-08-7.74737926e-12-1.11857480e+04 3.17816498e+01                   4
C5EN-OQOOH-35           C   5H   8O   3     G    300.00   3500.00 1580.00      1
 1.69833146e+01 2.73095032e-02-1.19226853e-05 2.48166925e-09-2.03420392e-13    2
-3.51234520e+04-5.58041780e+01 1.44561329e+00 6.66454559e-02-4.92669442e-05    3
 1.82387405e-08-2.69662788e-12-3.02135384e+04 2.62635800e+01                   4
C5EN-QOOH               C   5H   9O   2     G    300.00   3500.00 1420.00      1
 1.28791275e+01 3.32930454e-02-1.55378924e-05 3.46674396e-09-3.02869803e-13    2
 3.23011716e+03-3.38507184e+01 1.34404411e+00 6.57862381e-02-4.98616876e-05    3
 1.95812018e-08-3.13992224e-12 6.50608085e+03 2.58442475e+01                   4
C5H4O2                  C   5H   4O   2     G    300.00   3500.00 1430.00      1
 1.05158962e+01 2.23224229e-02-1.09267096e-05 2.56683236e-09-2.34844997e-13    2
-2.33303219e+04-2.94000374e+01-1.81996644e+00 5.68283325e-02-4.71217197e-05    3
 1.94409629e-08-3.18486782e-12-1.98022652e+04 3.45255921e+01                   4
C5H5O                   C   5H   5O   1     G    300.00   3500.00 1450.00      1
 1.05801390e+01 2.13128784e-02-9.63052935e-06 2.09384798e-09-1.79321204e-13    2
 1.62543411e+04-3.26154734e+01-4.01979397e+00 6.15885556e-02-5.12950230e-05    3
 2.12499370e-08-3.48209517e-12 2.04883217e+04 4.32455666e+01                   4
C5H7                    C   5H   7          G    300.00   3500.00 1430.00      1
 7.72404525e+00 2.56072196e-02-8.76350316e-06 8.66193959e-10 3.30416650e-14    2
 2.30808142e+04-1.69352935e+01 2.31765047e-01 4.65646468e-02-3.07468184e-05    3
 1.11148258e-08-1.75867718e-12 2.52236063e+04 2.18904247e+01                   4
C5H8                    C   5H   8          G    300.00   3500.00 1430.00      1
 8.95829159e+00 2.51033002e-02-8.43679234e-06 8.19905621e-10 3.11426511e-14    2
 4.67953300e+03-2.40439628e+01 1.19183502e+00 4.68276543e-02-3.12245763e-05    3
 1.14435811e-08-1.82614328e-12 6.90073958e+03 1.62025638e+01                   4
C5H8O                   C   5H   8O   1     G    300.00   3500.00 1330.00      1
 6.70800688e+00 3.65243775e-02-1.77765821e-05 4.15639148e-09-3.79163309e-13    2
-5.52771782e+03-9.67918417e+00-5.12640161e+00 7.21165834e-02-5.79181678e-05    3
 2.42774871e-08-4.16132413e-12-2.37976516e+03 5.07899199e+01                   4
C5H8O4                  C   5H   8O   4     G    300.00   3500.00 1230.00      1
 1.19601536e+01 3.99450843e-02-1.95947373e-05 4.60940117e-09-4.22302290e-13    2
-8.26385858e+04-2.91875208e+01-6.95683231e+00 1.01463738e-01-9.46174851e-05    3
 4.52721371e-08-8.68708602e-12-7.79850073e+04 6.59920851e+01                   4
C5H9CHO                 C   6H  10O   1     G    300.00   3500.00 1800.00      1
 1.08416239e+01 4.20296686e-02-2.00742994e-05 4.57927363e-09-4.08519043e-13    2
-3.59631714e+04-3.80017802e+01-6.51363638e+00 8.05969136e-02-5.22136702e-05    3
 1.64827443e-08-2.06177886e-12-2.97152777e+04 5.59285088e+01                   4
C6H10O5                 C   6H  10O   5     G    300.00   3500.00 1220.00      1
 1.54889718e+01 4.96354387e-02-2.45944509e-05 5.82332585e-09-5.35665863e-13    2
-1.09180509e+05-4.81819837e+01-7.95116461e+00 1.26488345e-01-1.19085729e-04    3
 5.74579042e-08-1.11165221e-11-1.03461116e+05 6.95642163e+01                   4
C6H2                    C   6H   2          G    300.00   3500.00 1100.00      1
 1.20007067e+01 9.35747205e-03-3.45039279e-06 5.96931921e-10-4.08067421e-14    2
 8.10797696e+04-3.61630610e+01 4.40206371e+00 3.69889013e-02-4.11296144e-05    3
 2.34328238e-08-5.23078218e-12 8.27514710e+04 1.22022725e+00                   4
C6H3                    C   6H   3          G    300.00   3500.00 1320.00      1
 1.19194523e+01 1.16137832e-02-4.19264523e-06 6.84693072e-10-4.17887568e-14    2
 8.26280760e+04-3.29876543e+01 4.46601450e+00 3.41999583e-02-2.98587533e-05    3
 1.36473739e-08-2.49684195e-12 8.45957836e+04 5.04018537e+00                   4
C6H4                    C   6H   4          G    300.00   3500.00 1360.00      1
 1.74447675e+01 6.21306708e-03-9.80963858e-07 8.00594635e-11-2.88320770e-15    2
 5.49568894e+04-6.59208082e+01-1.17305610e+00 6.09713718e-02-6.13761529e-05    3
 2.96855443e-08-5.44506791e-12 6.00209374e+04 2.96241244e+01                   4
C6H4C2H                 C   8H   5          G    300.00   3500.00 1490.00      1
 3.21415686e+01-1.98168404e-02 2.64282529e-05-1.09843473e-08 1.50630597e-12    2
 5.44964091e+04-1.47026437e+02-4.78252619e+00 7.93082463e-02-7.33621030e-05    3
 3.36645815e-08-5.98512503e-12 6.54997893e+04 4.58354239e+01                   4
C6H4CH3                 C   7H   7          G    300.00   3500.00 1450.00      1
 1.23344954e+01 2.38147082e-02-7.01721971e-06 3.58622104e-10 7.92842393e-14    2
 2.97091697e+04-3.94240761e+01-4.14387803e+00 6.92722902e-02-5.40423045e-05    3
 2.19793508e-08-3.64842760e-12 3.44878980e+04 4.61973136e+01                   4
C6H4O2                  C   6H   4O   2     G    300.00   3500.00 1410.00      1