SITE    SDEN/2.72E-9/
(P) B(P) 
END
THERMO ALL
  300.0   1000.0   3000.0
B(P)                    B   1P  1           I    300.00   3000.00 1000.00      1
 0.35989249E+01 0.20437732E-02-0.23878221E-06-0.22041054E-09 0.53299430E-13    2
-0.41095444E+04-0.21604582E+02-0.20174649E+01 0.14146218E-01-0.16376665E-05    3
-0.11264421E-07 0.60101386E-11-0.25084473E+04 0.79811935E+01                   4
(P)                     P   1               S   300.0    3000.0   1000.0       1
 0.00000000E+00 0.00000000E+00 0.00000000E+00 0.00000000E+00 0.00000000E+00    2
 0.00000000E+00 0.00000000E+00 0.00000000E+00 0.00000000E+00 0.00000000E+00    3
 0.00000000E+00 0.00000000E+00 0.00000000E+00 0.00000000E+00                   4
END

REACTIONS  KJOULES/MOLE  MWOFF 
B(P) => (P) + B                           1E+11  -0.1     50 
(P) + B => B(P)                           1E+12  -0.069     19.573 
END 

